data_c2x

_cell_length_a      12.3564504
_cell_length_b      12.3564504
_cell_length_c      12.3564504
_cell_angle_alpha   109.4712206
_cell_angle_beta    109.4712206
_cell_angle_gamma   109.4712206


loop_
_atom_site_type_symbol
_atom_site_fract_x
_atom_site_fract_y
_atom_site_fract_z
_atom_site_U_iso_or_equiv
_atom_site_occupancy
C -0.0092755181 -0.0092755181 -0.0092755181 0.01 1.00
C 0.3750977952 -0.0000185880 -0.0000185880 0.01 1.00
C 0.5002135866 -0.0000299850 -0.0000299850 0.01 1.00
C 0.8765435439 0.0006417960 0.0006417960 0.01 1.00
C 0.2493582048 0.1250000004 0.0009017450 0.01 1.00
C 0.3757122292 0.1250000004 -0.0002896710 0.01 1.00
C 0.7503894864 0.1250000004 0.0000558830 0.01 1.00
C 0.8754886858 0.1250000004 -0.0000158030 0.01 1.00
C 0.1250000004 0.2493582048 0.0009017450 0.01 1.00
C 0.2500158038 0.2500158038 0.0005044850 0.01 1.00
C 0.6251038781 0.2499827798 -0.0000333940 0.01 1.00
C 0.7501190804 0.2499997568 -0.0000060590 0.01 1.00
C -0.0000185880 0.3750977952 -0.0000185880 0.01 1.00
C 0.1250000004 0.3757122292 -0.0002896710 0.01 1.00
C 0.5000015546 0.3749872353 0.0000455510 0.01 1.00
C 0.6250219490 0.3750048172 0.0000041740 0.01 1.00
C -0.0000299850 0.5002135866 -0.0000299850 0.01 1.00
C 0.3749872353 0.5000015546 0.0000455510 0.01 1.00
C 0.5000149177 0.5000149177 0.0000540420 0.01 1.00
C 0.8749838299 0.5001210987 0.0000172210 0.01 1.00
C 0.2499827798 0.6251038781 -0.0000333940 0.01 1.00
C 0.3750048172 0.6250219490 0.0000041740 0.01 1.00
C 0.7499984495 0.6250440001 -0.0000143190 0.01 1.00
C 0.8749941878 0.6251193240 0.0000002440 0.01 1.00
C 0.1250000004 0.7503894864 0.0000558830 0.01 1.00
C 0.2499997568 0.7501190804 -0.0000060590 0.01 1.00
C 0.6250440001 0.7499984495 -0.0000143190 0.01 1.00
C 0.7500071615 0.7500071615 0.0000012110 0.01 1.00
C 0.0006417960 0.8765435439 0.0006417960 0.01 1.00
C 0.1250000004 0.8754886858 -0.0000158030 0.01 1.00
C 0.5001210987 0.8749838299 0.0000172210 0.01 1.00
C 0.6251193240 0.8749941878 0.0000002440 0.01 1.00
C 0.2493582048 0.0009017450 0.1250000004 0.01 1.00
C 0.3757122292 -0.0002896710 0.1250000004 0.01 1.00
C 0.7503894864 0.0000558830 0.1250000004 0.01 1.00
C 0.8754886858 -0.0000158030 0.1250000004 0.01 1.00
C 0.2592755189 0.1250000004 0.1250000004 0.01 1.00
C 0.6251666551 0.1250000004 0.1250000004 0.01 1.00
C 0.7503013994 0.1250000004 0.1250000004 0.01 1.00
C 0.0009017450 0.2493582048 0.1250000004 0.01 1.00
C 0.1250000004 0.2592755189 0.1250000004 0.01 1.00
C 0.5001163836 0.2500185888 0.1250000004 0.01 1.00
C 0.6252435721 0.2500299858 0.1250000004 0.01 1.00
C -0.0002896710 0.3757122292 0.1250000004 0.01 1.00
C 0.3748171892 0.3748171892 0.1250000004 0.01 1.00
C 0.4999928426 0.3749940532 0.1250000004 0.01 1.00
C 0.8748742268 0.3751382262 0.1250000004 0.01 1.00
C 0.2500185888 0.5001163836 0.1250000004 0.01 1.00
C 0.3749940532 0.4999928426 0.1250000004 0.01 1.00
C 0.7499616405 0.5000613786 0.1250000004 0.01 1.00
C 0.8749320499 0.5001783177 0.1250000004 0.01 1.00
C 0.1250000004 0.6251666551 0.1250000004 0.01 1.00
C 0.2500299858 0.6252435721 0.1250000004 0.01 1.00
C 0.6250000021 0.6250000021 0.1250000004 0.01 1.00
C 0.7499850865 0.6250391270 0.1250000004 0.01 1.00
C 0.0000558830 0.7503894864 0.1250000004 0.01 1.00
C 0.1250000004 0.7503013994 0.1250000004 0.01 1.00
C 0.5000613786 0.7499616405 0.1250000004 0.01 1.00
C 0.6250391270 0.7499850865 0.1250000004 0.01 1.00
C -0.0000158030 0.8754886858 0.1250000004 0.01 1.00
C 0.3751382262 0.8748742268 0.1250000004 0.01 1.00
C 0.5001783177 0.8749320499 0.1250000004 0.01 1.00
C 0.8751828149 0.8751828149 0.1250000004 0.01 1.00
C 0.1250000004 0.0009017450 0.2493582048 0.01 1.00
C 0.2500158038 0.0005044850 0.2500158038 0.01 1.00
C 0.6251038781 -0.0000333940 0.2499827798 0.01 1.00
C 0.7501190804 -0.0000060590 0.2499997568 0.01 1.00
C 0.0009017450 0.1250000004 0.2493582048 0.01 1.00
C 0.1250000004 0.1250000004 0.2592755189 0.01 1.00
C 0.5001163836 0.1250000004 0.2500185888 0.01 1.00
C 0.6252435721 0.1250000004 0.2500299858 0.01 1.00
C 0.0005044850 0.2500158038 0.2500158038 0.01 1.00
C 0.3734564603 0.2490982558 0.2490982558 0.01 1.00
C 0.5010018997 0.2502896718 0.2502896718 0.01 1.00
C 0.8753336039 0.2499441178 0.2499441178 0.01 1.00
C 0.2490982558 0.3734564603 0.2490982558 0.01 1.00
C 0.3745113182 0.3745113182 0.2494955158 0.01 1.00
C 0.7501372735 0.3750161742 0.2500333948 0.01 1.00
C 0.8751251399 0.3750058162 0.2500060598 0.01 1.00
C 0.1250000004 0.5001163836 0.2500185888 0.01 1.00
C 0.2502896718 0.5010018997 0.2502896718 0.01 1.00
C 0.6249560040 0.4999416847 0.2499544498 0.01 1.00
C 0.7500177755 0.5000006446 0.2499958268 0.01 1.00
C -0.0000333940 0.6251038781 0.2499827798 0.01 1.00
C 0.1250000004 0.6252435721 0.2500299858 0.01 1.00
C 0.4999416847 0.6249560040 0.2499544498 0.01 1.00
C 0.6249608770 0.6249608770 0.2499459588 0.01 1.00
C -0.0000060590 0.7501190804 0.2499997568 0.01 1.00
C 0.3750161742 0.7501372735 0.2500333948 0.01 1.00
C 0.5000006446 0.7500177755 0.2499958268 0.01 1.00
C 0.8750127689 0.7500583195 0.2500143198 0.01 1.00
C 0.2499441178 0.8753336039 0.2499441178 0.01 1.00
C 0.3750058162 0.8751251399 0.2500060598 0.01 1.00
C 0.7500583195 0.8750127689 0.2500143198 0.01 1.00
C 0.8750059509 0.8750059509 0.2499987898 0.01 1.00
C -0.0000185880 -0.0000185880 0.3750977952 0.01 1.00
C 0.1250000004 -0.0002896710 0.3757122292 0.01 1.00
C 0.5000015546 0.0000455510 0.3749872353 0.01 1.00
C 0.6250219490 0.0000041740 0.3750048172 0.01 1.00
C -0.0002896710 0.1250000004 0.3757122292 0.01 1.00
C 0.3748171892 0.1250000004 0.3748171892 0.01 1.00
C 0.4999928426 0.1250000004 0.3749940532 0.01 1.00
C 0.8748742268 0.1250000004 0.3751382262 0.01 1.00
C 0.2490982558 0.2490982558 0.3734564603 0.01 1.00
C 0.3745113182 0.2494955158 0.3745113182 0.01 1.00
C 0.7501372735 0.2500333948 0.3750161742 0.01 1.00
C 0.8751251399 0.2500060598 0.3750058162 0.01 1.00
C 0.1250000004 0.3748171892 0.3748171892 0.01 1.00
C 0.2494955158 0.3745113182 0.3745113182 0.01 1.00
C 0.6252640031 0.3751257772 0.3751257772 0.01 1.00
C 0.7502462704 0.3750679542 0.3750679542 0.01 1.00
C 0.0000455510 0.5000015546 0.3749872353 0.01 1.00
C 0.1250000004 0.4999928426 0.3749940532 0.01 1.00
C 0.4996105176 0.4996105176 0.3746664002 0.01 1.00
C 0.6248806800 0.4998809236 0.3748748642 0.01 1.00
C 0.0000041740 0.6250219490 0.3750048172 0.01 1.00
C 0.3751257772 0.6252640031 0.3751257772 0.01 1.00
C 0.4998809236 0.6248806800 0.3748748642 0.01 1.00
C 0.8750000029 0.6250000021 0.3750000013 0.01 1.00
C 0.2500333948 0.7501372735 0.3750161742 0.01 1.00
C 0.3750679542 0.7502462704 0.3750679542 0.01 1.00
C 0.7499386255 0.7499386255 0.3749002623 0.01 1.00
C 0.8749951869 0.7499993594 0.3750171312 0.01 1.00
C 0.1250000004 0.8748742268 0.3751382262 0.01 1.00
C 0.2500060598 0.8751251399 0.3750058162 0.01 1.00
C 0.6250000021 0.8750000029 0.3750000013 0.01 1.00
C 0.7499993594 0.8749951869 0.3750171312 0.01 1.00
C -0.0000299850 -0.0000299850 0.5002135866 0.01 1.00
C 0.3749872353 0.0000455510 0.5000015546 0.01 1.00
C 0.5000149177 0.0000540420 0.5000149177 0.01 1.00
C 0.8749838299 0.0000172210 0.5001210987 0.01 1.00
C 0.2500185888 0.1250000004 0.5001163836 0.01 1.00
C 0.3749940532 0.1250000004 0.4999928426 0.01 1.00
C 0.7499616405 0.1250000004 0.5000613786 0.01 1.00
C 0.8749320499 0.1250000004 0.5001783177 0.01 1.00
C 0.1250000004 0.2500185888 0.5001163836 0.01 1.00
C 0.2502896718 0.2502896718 0.5010018997 0.01 1.00
C 0.6249560040 0.2499544498 0.4999416847 0.01 1.00
C 0.7500177755 0.2499958268 0.5000006446 0.01 1.00
C 0.0000455510 0.3749872353 0.5000015546 0.01 1.00
C 0.1250000004 0.3749940532 0.4999928426 0.01 1.00
C 0.4996105176 0.3746664002 0.4996105176 0.01 1.00
C 0.6248806800 0.3748748642 0.4998809236 0.01 1.00
C 0.0000540420 0.5000149177 0.5000149177 0.01 1.00
C 0.3746664002 0.4996105176 0.4996105176 0.01 1.00
C 0.4996986047 0.4996986047 0.4996986047 0.01 1.00
C 0.8750997419 0.5000383636 0.5000383636 0.01 1.00
C 0.2499544498 0.6249560040 0.4999416847 0.01 1.00
C 0.3748748642 0.6248806800 0.4998809236 0.01 1.00
C 0.7498789055 0.6248961261 0.4998627307 0.01 1.00
C 0.8749828728 0.6249780550 0.4999822286 0.01 1.00
C 0.1250000004 0.7499616405 0.5000613786 0.01 1.00
C 0.2499958268 0.7500177755 0.5000006446 0.01 1.00
C 0.6248961261 0.7498789055 0.4998627307 0.01 1.00
C 0.7498216865 0.7498216865 0.4997537337 0.01 1.00
C 0.0000172210 0.8749838299 0.5001210987 0.01 1.00
C 0.1250000004 0.8749320499 0.5001783177 0.01 1.00
C 0.5000383636 0.8750997419 0.5000383636 0.01 1.00
C 0.6249780550 0.8749828728 0.4999822286 0.01 1.00
C 0.2499827798 -0.0000333940 0.6251038781 0.01 1.00
C 0.3750048172 0.0000041740 0.6250219490 0.01 1.00
C 0.7499984495 -0.0000143190 0.6250440001 0.01 1.00
C 0.8749941878 0.0000002440 0.6251193240 0.01 1.00
C 0.1250000004 0.1250000004 0.6251666551 0.01 1.00
C 0.2500299858 0.1250000004 0.6252435721 0.01 1.00
C 0.6250000021 0.1250000004 0.6250000021 0.01 1.00
C 0.7499850865 0.1250000004 0.6250391270 0.01 1.00
C -0.0000333940 0.2499827798 0.6251038781 0.01 1.00
C 0.1250000004 0.2500299858 0.6252435721 0.01 1.00
C 0.4999416847 0.2499544498 0.6249560040 0.01 1.00
C 0.6249608770 0.2499459588 0.6249608770 0.01 1.00
C 0.0000041740 0.3750048172 0.6250219490 0.01 1.00
C 0.3751257772 0.3751257772 0.6252640031 0.01 1.00
C 0.4998809236 0.3748748642 0.6248806800 0.01 1.00
C 0.8750000029 0.3750000013 0.6250000021 0.01 1.00
C 0.2499544498 0.4999416847 0.6249560040 0.01 1.00
C 0.3748748642 0.4998809236 0.6248806800 0.01 1.00
C 0.7498789055 0.4998627307 0.6248961261 0.01 1.00
C 0.8749828728 0.4999822286 0.6249780550 0.01 1.00
C 0.1250000004 0.6250000021 0.6250000021 0.01 1.00
C 0.2499459588 0.6249608770 0.6249608770 0.01 1.00
C 0.6248333490 0.6248333490 0.6248333490 0.01 1.00
C 0.7497864174 0.6247564320 0.6247564320 0.01 1.00
C -0.0000143190 0.7499984495 0.6250440001 0.01 1.00
C 0.1250000004 0.7499850865 0.6250391270 0.01 1.00
C 0.4998627307 0.7498789055 0.6248961261 0.01 1.00
C 0.6247564320 0.7497864174 0.6247564320 0.01 1.00
C 0.0000002440 0.8749941878 0.6251193240 0.01 1.00
C 0.3750000013 0.8750000029 0.6250000021 0.01 1.00
C 0.4999822286 0.8749828728 0.6249780550 0.01 1.00
C 0.8748617779 0.8748617779 0.6247360010 0.01 1.00
C 0.1250000004 0.0000558830 0.7503894864 0.01 1.00
C 0.2499997568 -0.0000060590 0.7501190804 0.01 1.00
C 0.6250440001 -0.0000143190 0.7499984495 0.01 1.00
C 0.7500071615 0.0000012110 0.7500071615 0.01 1.00
C 0.0000558830 0.1250000004 0.7503894864 0.01 1.00
C 0.1250000004 0.1250000004 0.7503013994 0.01 1.00
C 0.5000613786 0.1250000004 0.7499616405 0.01 1.00
C 0.6250391270 0.1250000004 0.7499850865 0.01 1.00
C -0.0000060590 0.2499997568 0.7501190804 0.01 1.00
C 0.3750161742 0.2500333948 0.7501372735 0.01 1.00
C 0.5000006446 0.2499958268 0.7500177755 0.01 1.00
C 0.8750127689 0.2500143198 0.7500583195 0.01 1.00
C 0.2500333948 0.3750161742 0.7501372735 0.01 1.00
C 0.3750679542 0.3750679542 0.7502462704 0.01 1.00
C 0.7499386255 0.3749002623 0.7499386255 0.01 1.00
C 0.8749951869 0.3750171312 0.7499993594 0.01 1.00
C 0.1250000004 0.5000613786 0.7499616405 0.01 1.00
C 0.2499958268 0.5000006446 0.7500177755 0.01 1.00
C 0.6248961261 0.4998627307 0.7498789055 0.01 1.00
C 0.7498216865 0.4997537337 0.7498216865 0.01 1.00
C -0.0000143190 0.6250440001 0.7499984495 0.01 1.00
C 0.1250000004 0.6250391270 0.7499850865 0.01 1.00
C 0.4998627307 0.6248961261 0.7498789055 0.01 1.00
C 0.6247564320 0.6247564320 0.7497864174 0.01 1.00
C 0.0000012110 0.7500071615 0.7500071615 0.01 1.00
C 0.3749002623 0.7499386255 0.7499386255 0.01 1.00
C 0.4997537337 0.7498216865 0.7498216865 0.01 1.00
C 0.8749022089 0.7498836205 0.7498836205 0.01 1.00
C 0.2500143198 0.8750127689 0.7500583195 0.01 1.00
C 0.3750171312 0.8749951869 0.7499993594 0.01 1.00
C 0.7498836205 0.8749022089 0.7498836205 0.01 1.00
C 0.8742877748 0.8742877748 0.7489981044 0.01 1.00
C 0.0006417960 0.0006417960 0.8765435439 0.01 1.00
C 0.1250000004 -0.0000158030 0.8754886858 0.01 1.00
C 0.5001210987 0.0000172210 0.8749838299 0.01 1.00
C 0.6251193240 0.0000002440 0.8749941878 0.01 1.00
C -0.0000158030 0.1250000004 0.8754886858 0.01 1.00
C 0.3751382262 0.1250000004 0.8748742268 0.01 1.00
C 0.5001783177 0.1250000004 0.8749320499 0.01 1.00
C 0.8751828149 0.1250000004 0.8751828149 0.01 1.00
C 0.2499441178 0.2499441178 0.8753336039 0.01 1.00
C 0.3750058162 0.2500060598 0.8751251399 0.01 1.00
C 0.7500583195 0.2500143198 0.8750127689 0.01 1.00
C 0.8750059509 0.2499987898 0.8750059509 0.01 1.00
C 0.1250000004 0.3751382262 0.8748742268 0.01 1.00
C 0.2500060598 0.3750058162 0.8751251399 0.01 1.00
C 0.6250000021 0.3750000013 0.8750000029 0.01 1.00
C 0.7499993594 0.3750171312 0.8749951869 0.01 1.00
C 0.0000172210 0.5001210987 0.8749838299 0.01 1.00
C 0.1250000004 0.5001783177 0.8749320499 0.01 1.00
C 0.5000383636 0.5000383636 0.8750997419 0.01 1.00
C 0.6249780550 0.4999822286 0.8749828728 0.01 1.00
C 0.0000002440 0.6251193240 0.8749941878 0.01 1.00
C 0.3750000013 0.6250000021 0.8750000029 0.01 1.00
C 0.4999822286 0.6249780550 0.8749828728 0.01 1.00
C 0.8748617779 0.6247360010 0.8748617779 0.01 1.00
C 0.2500143198 0.7500583195 0.8750127689 0.01 1.00
C 0.3750171312 0.7499993594 0.8749951869 0.01 1.00
C 0.7498836205 0.7498836205 0.8749022089 0.01 1.00
C 0.8742877748 0.7489981044 0.8742877748 0.01 1.00
C 0.1250000004 0.8751828149 0.8751828149 0.01 1.00
C 0.2499987898 0.8750059509 0.8750059509 0.01 1.00
C 0.6247360010 0.8748617779 0.8748617779 0.01 1.00
C 0.7489981044 0.8742877748 0.8742877748 0.01 1.00
